This is a new file.
I added a second line	add new test.
New line.
