This is a new file.
I added a second line	add new test.
I added a third line to test PR.
New Line.
